sistemas/01J20M.txt
CEPEL - Centro de Pesquisas de Energia Eletrica - ANAREDE V11.07.02

 ONS - MENSAL - JANEIRO 2020 - Média                                             
 RELATORIO DE EXECUCAO DO FLUXO DE POTENCIA CONTINUADO

 Opcoes Ativadas: QLIM VLIM CREM CTAP STEP BPSI NEWT RCVG RMON FILE 80CO CONT CELO STPO CTAF CTAF IANG

 X----X----------------X--------------------------X-------------X---------X
                            AUMENTO DA CARGA                               
  NUM.   CONVERGENCIA        ATIVA E REATIVA (%)   CARGA DA AREA PASSO MAX 
          STATUS    P/Q  MAXIMO    AREA    SISTEMA   MW / Mvar    P/Q (%)  
 X----X------------X---X--------X--------X--------X-------------X---------X

     0 Convergente    3    0.000    0.000    0.000 91896.37 MW      0.5000
                      3    0.000    0.000    0.000 28348.43 Mvar    0.5000
     1 Convergente   19    0.500    0.500    0.500 92355.67 MW      0.5000
                     19    0.500    0.500    0.500 28490.16 Mvar    0.5000
     2 Convergente   17    1.000    1.000    1.000 92814.98 MW      0.5000
                     17    1.000    1.000    1.000 28631.89 Mvar    0.5000
     3 Convergente   20    1.500    1.499    1.499 93274.28 MW      0.5000
                     20    1.500    1.500    1.500 28773.62 Mvar    0.5000
     4 Convergente   20    2.000    1.999    1.999 93733.59 MW      0.5000
                     20    2.000    2.000    2.000 28915.35 Mvar    0.5000
     5 Nao Converg. 101                                             0.5000
                    101                                             0.5000
     6 Nao Converg. 101                                             0.2500
                    101                                             0.2500
     7 Nao Converg. 101                                             0.1250
                    101                                             0.1250
     8 ControlCCnao   0                                             0.0625
                      0                                             0.0625
     9 Nao Converg. 101                                             0.0312
                    101                                             0.0312
    10 Convergente   17    2.016    2.015    2.015 93747.94 MW      0.0156
                     17    2.016    2.015    2.015 28919.78 Mvar    0.0156
    11 Convergente   18    2.031    2.030    2.030 93762.30 MW      0.0156
                     18    2.031    2.031    2.031 28924.21 Mvar    0.0156
    12 Nao Converg. 101                                             0.0156
                    101                                             0.0156
    13 Convergente   16    2.039    2.038    2.038 93769.47 MW      0.0078
                     16    2.039    2.039    2.039 28926.42 Mvar    0.0078
    14 Convergente   17    2.047    2.046    2.046 93776.65 MW      0.0078
                     17    2.047    2.047    2.047 28928.64 Mvar    0.0078
    15 Convergente   17    2.055    2.054    2.054 93783.83 MW      0.0078
                     17    2.055    2.055    2.055 28930.85 Mvar    0.0078
    16 Convergente   20    2.063    2.062    2.062 93791.00 MW      0.0078
                     20    2.063    2.062    2.062 28933.07 Mvar    0.0078
    17 Nao Converg. 101                                             0.0078
                    101                                             0.0078
    18 Convergente   11    2.066    2.066    2.066 93794.59 MW      0.0039
                     11    2.066    2.066    2.066 28934.17 Mvar    0.0039
    19 Convergente   11    2.070    2.070    2.070 93798.18 MW      0.0039
                     11    2.070    2.070    2.070 28935.28 Mvar    0.0039
    20 Convergente   11    2.074    2.073    2.073 93801.77 MW      0.0039
                     11    2.074    2.074    2.074 28936.39 Mvar    0.0039
    21 Convergente   11    2.078    2.077    2.077 93805.36 MW      0.0039
                     11    2.078    2.078    2.078 28937.49 Mvar    0.0039
    22 Convergente   11    2.082    2.081    2.081 93808.94 MW      0.0039
                     11    2.082    2.082    2.082 28938.60 Mvar    0.0039
    23 Convergente   11    2.086    2.085    2.085 93812.53 MW      0.0039
                     11    2.086    2.086    2.086 28939.71 Mvar    0.0039
    24 Convergente   11    2.090    2.089    2.089 93816.12 MW      0.0039
                     11    2.090    2.090    2.090 28940.82 Mvar    0.0039
    25 Convergente   11    2.094    2.093    2.093 93819.71 MW      0.0039
                     11    2.094    2.094    2.094 28941.92 Mvar    0.0039
    26 Convergente   11    2.098    2.097    2.097 93823.30 MW      0.0039
                     11    2.098    2.097    2.097 28943.03 Mvar    0.0039
    27 Convergente   11    2.102    2.101    2.101 93826.89 MW      0.0039
                     11    2.102    2.101    2.101 28944.14 Mvar    0.0039
    28 Convergente   11    2.105    2.105    2.105 93830.47 MW      0.0039
                     11    2.105    2.105    2.105 28945.25 Mvar    0.0039
    29 Convergente   11    2.109    2.109    2.109 93834.06 MW      0.0039
                     11    2.109    2.109    2.109 28946.35 Mvar    0.0039
    30 Convergente   12    2.113    2.112    2.112 93837.65 MW      0.0039
                     12    2.113    2.113    2.113 28947.46 Mvar    0.0039
    31 Convergente   12    2.117    2.116    2.116 93841.24 MW      0.0039
                     12    2.117    2.117    2.117 28948.57 Mvar    0.0039
    32 Convergente   12    2.121    2.120    2.120 93844.83 MW      0.0039
                     12    2.121    2.121    2.121 28949.67 Mvar    0.0039
    33 Convergente   12    2.125    2.124    2.124 93848.42 MW      0.0039
                     12    2.125    2.125    2.125 28950.78 Mvar    0.0039
    34 Convergente   12    2.129    2.128    2.128 93852.00 MW      0.0039
                     12    2.129    2.129    2.129 28951.89 Mvar    0.0039
    35 Convergente   12    2.133    2.132    2.132 93855.59 MW      0.0039
                     12    2.133    2.133    2.133 28953.00 Mvar    0.0039
    36 Convergente   12    2.137    2.136    2.136 93859.18 MW      0.0039
                     12    2.137    2.137    2.137 28954.10 Mvar    0.0039
    37 Convergente   12    2.141    2.140    2.140 93862.77 MW      0.0039
                     12    2.141    2.140    2.140 28955.21 Mvar    0.0039
    38 Convergente   12    2.145    2.144    2.144 93866.36 MW      0.0039
                     12    2.145    2.144    2.144 28956.32 Mvar    0.0039
    39 Convergente   12    2.148    2.148    2.148 93869.95 MW      0.0039
                     12    2.148    2.148    2.148 28957.43 Mvar    0.0039
    40 Convergente   12    2.152    2.152    2.152 93873.53 MW      0.0039
                     12    2.152    2.152    2.152 28958.53 Mvar    0.0039
    41 Convergente   13    2.156    2.155    2.155 93877.12 MW      0.0039
                     13    2.156    2.156    2.156 28959.64 Mvar    0.0039
    42 Convergente   14    2.160    2.159    2.159 93880.71 MW      0.0039
                     14    2.160    2.160    2.160 28960.75 Mvar    0.0039
    43 Nao Converg. 101                                             0.0039
                    101                                             0.0039
 
 Atingido incremento minimo
CEPEL - Centro de Pesquisas de Energia Eletrica - ANAREDE V11.07.02

 ONS - MENSAL - JANEIRO 2020 - Média                                             
 SUMARIO DO SISTEMA ELETRICO

 X-----X-----X-----X-----X-----X-----X-----X-----X-----X-----X-----X-----X-----X-----X-----X-----X-----X-----X-----X-----X
   AREA  BAR   GER   GEI   SHT   BSB   REM   CAR   CAI   MOT   F/R   CIR   TRF   TRD   CSC   SHL   BSL   TIE   CER   INT
 X-----X-----X-----X-----X-----X-----X-----X-----X-----X-----X-----X-----X-----X-----X-----X-----X-----X-----X-----X-----X

      1   244    33     0     0    60     4     0     0     0     0   529   248     2     1    44    20   177     5   316
      2   115    18     0     0    22     0     0     0     0     0   199   126     1     0     6     9    59     3   110
      3   392   100     0     2    34     0     0     0     0     0   501    64     0     0     0     0    45     0    94
      4    57     0     0     0    31     0     0     0     0     0   151    89     0     0     2     4    34     0    96
      5    73     2     0     0    26     0     0     0     0     0   258   100     0     0     3    20   133     1   256
      6   468     0     0     0    16     0     0     0     0     0   941    46     0     0     0     0   453     0   664
      7   353    22     0     0    47     0     0     0     0     0   427    22     0     0     0     0    83     0   167
      8     9     8     0     0     0     0     0     0     0     0     8     6     0     0     0     0     7     0    11
      9   319     5     0     0     4     0     0     0     0     0   445     0     0     0     0     0    60     0   106
     10    93    16     0     0    43     0     0     0     0     0   140    22     0     0     0     0    19     0    48
     11   139    14     0     0    24     0     0     0     0     0   203    58     1     0     0     0    30     0    43
     12   136     7     0     0    28     0     0     0     0     0   162    61     0     0     0     0    38     0    87
     13   115     1     0     0    45     0     0     0     0     0   206    99     0     0     0     0    18     0    28
     14    10    10     0     0     0     0     0     0     0     0     0     0     0     0     0     0     0     0    10
     15    11     9     0     0     0     0     0     0     0     0     3     2     0     0     0     0     1     0    11
     16     1     0     0     0     0     0     0     0     0     0     0     0     0     0     0     0     0     0     1
     17     4     1     0     0     2     0     0     0     0     0     9     1     0     0     0     0     0     0     0
     18    44    13     0     0    26     0     0     0     0     0    45    12     1     0     0     0     1     0     6
     19    21    18     0     0     0     0     0     0     0     0    23    19     0     0     0     0    19     0    19
     20   113     9     0     0    18     0     0     0     0     0   299   138     0     0     9     9   119     1   272
     21    57     9     0     1     8     0     0     0     0     0   179   101     0     0     0     0   116     0   165
     22   293    38     0     0   175     0     0     0     0     0   350    34     0     0     0     0    17     0   110
     23    70     7     0     0    18     0     0     0     0     0   236   127     0     0     2     4   157     0   203
     24   112     2     0     0    53     0     0     0     0     0   104     8     0     0     0     0    10     0    69
     25   211    56     0     0   170     0     0     0     0     0   290    40     0     0     0     0    61     0    98
     26   122     5     0     0    34     0     0     0     0     0   169    67     0     0     0     8    40     0    64
     27    19    16     0     0     0     0     0     0     0     0    25    13     0     0     0     0    11     0    16
     28    22     3     0     0     0     0     0     0     0     0    18     0     0     0     0     0    18     0    23
     29    33     4     0     0     0     0     0     0     0     0    14     0     0     0     0     0    12     0    50
     30   271    21     0     0     1     0     0     0     0     0   209     3     0     0     0     0   119     0   346
     31   167    19     0     2   128     0     0     0     0     0   159    39     0     0     0     0    31     0   139
     33     2     0     0     0     0     0     0     0     0     0     3     0     0     0     2     1     2     0     2
     34     2     2     0     0     0     0     0     0     0     0     2     2     0     0     0     0     2     0     2
     35    34     2     0     0     4     0     0     0     0     0    11     6     0     0     0     0     6     0    54
     36    17     3     0     0     1     0     0     0     0     0     2     0     0     0     0     0     2     0    28
     37    12     3     0     0     0     0     0     0     0     0    10     6     0     0     0     0     0     0    10
     38    32     8     0     0     1     0     0     0     0     0    54    30     0     0     1     0    17     0    48
     39    93    35     0     0    17     0     0     0     0     0   107    60     0     0     1     2    33     0    54
     40    17     8     0     0     0     0     0     0     0     0    27     9     0     0     0     0    12     0    31
     41    83    37     0     0    11     0     0     0     0     0    92    58     0     0     2     0    20     0    76
     42    40     0     0     0     4     0     0     0     0     0    35     0     0     0     0     0    15     0    37
     44     2     2     0     0     0     0     0     0     0     0     0     0     0     0     0     0     0     0     2
     45    86     4     0     0    12     0     0     0     0     0   131    84     0     0    26     4    24     2    55
     46   227    25     0     0    31     0     0     0     0     0   277   137     0     0     1     7    48     0    95
     47    99    12     0     0    28     3     0     0     0     0   148    98     0     0    15     6    11     2    16
     48    27     3     0     0    13     0     0     0     0     0    30    17     0     0     0     0     6     0    14
     49   163    75     0     0    14     0     0     0     0     0   172    68     0     0    37     2    46     2    92
     51    33    16     0     0     1     0     0     0     0     0    49    27     0     0     6     1    16     0    34
     52    21     0     0     0     0     0     0     0     0     0    25     7     0     0     0     0     1     0     4
     53   227    74     0     0    73     7     0     0     0     0   297   148     0     0    20     2     7     3    12
     54   154    22     0     0    19     0     0     0     0     0   257   150     0     0     9     2     8     2    10
     55   362    85     0     0    92     0     0     0     0     0   526   282     0     0     8    13     6     3    18
     56   183    51     0     0    52     2     0     0     0     0   268   144     0     0    27     0     5     4    12
     57   128    28     0     0    38     4     0     0     0     0   170    94     0     0    26     4    11     2    18
     58   140    22     0     0    14     0     0     0     0     0   180   112     0     0    28     2    17     0    35
     59   155    20     0     0    16    10     0     0     0     0   208   133     0     0    20     1     5     0    20
     61     8     0     0     0     2     0     0     0     0     0    25    11     0     0     0     0    19     2    19
     62     3     0     0     0     0     0     0     0     0     0     3     3     0     0     0     0     3     0     6
     63    52     2     0     0     8     0     0     0     0     0    65    14     0     2    24     0     6     0    19
     64    12     7     0     0     0     0     0     0     0     0    14     7     0     0     0     0     7     0     9
     65     3     0     0     0     0     0     0     0     0     0     0     0     0     0     0     0     0     0     5
     66    14     0     0     0     5     0     0     0     0     0    11     2     0     0     0     0     4     0    12
     67    28     0     0     0     4     0     0     0     0     0    60    28     0     0    17     2    26     1    42
     68    10     2     0     0     1     0     0     0     0     0     9     6     0     0     0     0     0     0     7
     69     4     3     0     0     0     0     0     0     0     0     2     0     0     0     0     0     2     0     8
     70     2     1     0     0     0     0     0     0     0     0     3     1     0     0     0     0     2     0     2
     71    52    12     0     0     6     1     0     0     0     0    66    31     2     0     5     1    33     2    88
     72    53     6     0     0     5     0     0     0     0     0    62    17     0     0     4     2    20     1    48
     73    98    36     0     0     3     0     0     0     0     0   102    52     0     0     6     2    35     1    64
     74    12     0     0     0     1     0     0     0     0     0    41    29     0     0     0     0    32     0    52
     75    18     6     0     0     2     0     0     0     0     0    33    18     0     0     0     0    24     0    32
     80    64     5     0     0    12     0     0     0     0     0    91    41     0     0    20     1    13     4    18
     81    12     5     0     0     4     0     0     0     0     0    15     5     0     0     0     1     0     0     1
     82    21     6     0     0     2     0     0     0     0     0    24    15     0     0     0     0     1     0     5
     85    59    10     0     0     1     0     0     0     0     0    85    41     0     0     0     1     9     0    19
     86    22     7     0     0     3     0     0     0     0     0    29     5     0     0     0     0     2     0     9
    124    21     3     0     0     3     0     0     0     0     0     8     2     0     0     0     0     6     0    21
    125     2     0     0     0     0     0     0     0     0     0     2     0     0     0     0     0     2     0     2
    126    47    36     0     0     0     0     0     0     0     0    37    21     0     0     0     3    13     0    38
    999     1     0     0     0     0     0     0     0     0     0     0     0     0     0     0     0     0     0     1
 X-----X-----X-----X-----X-----X-----X-----X-----X-----X-----X-----X-----X-----X-----X-----X-----X-----X-----X-----X-----X
  TOTAL  7051  1150     0     5  1516    31     0     0     0     0 10170  3566     7     3   371   134  2467    41
  MAX.  20000  6000 24000  8000  5000  1000 10000 40000  2000  5000 40000 16000  3000   400  4000  5000 28000   400
 X-----X-----X-----X-----X-----X-----X-----X-----X-----X-----X-----X-----X-----X-----X-----X-----X-----X-----X-----X-----X
CEPEL - Centro de Pesquisas de Energia Eletrica - ANAREDE V11.07.02

 ONS - MENSAL - JANEIRO 2020 - Média                                             
 RELATORIO DE COMPENSADORES ESTATICOS DE REATIVO

 X-------------------------X-----X-----X--------------------X------------X---X--X--X---X---X
       B  A  R  R  A        Incl.   Vo     GERACAO Mvar      BARRA CONTR. TIP No No
   Num.     Nome     Tensao  (%)   p.u. Minima  Mvar  Maxima  Num. Tensao C O Un Gr EST LMT
 X-----X------------X------X-----X-----X------X------X------X-----X------X-X-X--X--X---X---X

     42 BAND-1CER345  1.001  2.00 1.006  -50.1   23.8  100.2    42  1.001 I L  1  1 LIG    
     43 BAND-2CER345  1.001  2.00 1.006  -50.1   23.8  100.2    43  1.001 I L  1  2 LIG    
     46 CAMPOSCER345  1.025  2.00 1.019  -52.5  -28.3  105.0    46  1.025 I L  1  3 LIG    
     55 BALTO-CER230  1.001  4.00 0.996  -22.0  -12.4   33.1    55  1.001 I L  1  4 LIG    
    389 OPRET2CER013  0.989  1.00 1.017  -78.3  -62.2   19.6   386  1.023 I L  1 10 LIG    
    499 F.DIASCER500  1.073  0.22 1.073 -172.7    0.0  345.4   499  1.073 P    1 10 DES    
    567 SBARBA-SP440  0.986  0.83 1.052 -291.6  291.6  291.6   567  0.986 P C  1  1 LIG    
    597 BAURU-CER440  1.005  0.43 1.041 -126.3  252.7  252.7   597  1.005 P C  1 10 LIG    
   1078 ANASTACER230  1.043  2.00 1.035  -54.4  -40.3   54.4  1078  1.043 I L  1  1 LIG    
   1490 BDESP3CER500  1.050  1.00 1.033 -220.6 -171.8  330.9  1490  1.050 P L  1 10 LIG    
   1889 IMBIRUCER230  1.033  2.00 1.043 -106.7   50.5  106.7  1889  1.033 P L  1  1 LIG    
   3026 LUZIA-CER500  1.074  1.00 1.041 -173.1 -173.1  346.3  3007  1.074 P I  1  1 LIG    
   3344 P.FIAL-MG345  1.019  1.05 1.023  -95.6   36.3  107.2  3344  1.019 P L  1 10 LIG    
   4093 SDUMO2CER345  0.994  2.72 1.033  -83.0   98.8   98.8  4093  0.994 I C  1 10 LIG    
   4530 COXIPOCER230  1.010  0.01 1.010  -51.0   13.3   71.4  4530  1.010 I L  1 10 LIG    
   4582 SINOP--MT230  1.017  0.80 1.021  -20.7   53.1   56.9  4582  1.017 P L  1 10 LIG    
   4665 PARTG-CER500  1.029  0.01 1.029 -211.8 -186.1  211.8  4665  1.029 I L  1 10 LIG    
   4677 RVNRT-CER500  1.037  0.33 1.034 -215.2 -105.5  322.9  4677  1.037 I L  1 10 LIG    
   5239 CGD---CER230  1.015  0.01 1.015    0.0   31.0  198.4  5222  1.015 I L  1 10 LIG    
   5410 MILAGRCER230  1.025  5.00 1.020  -92.4  -10.1  102.3  5410  1.025 I L  1 10 LIG    
   5450 FORTALCER230  1.015  1.50 1.020 -180.2   36.0  195.2  5450  1.015 I L  1 10 LIG    
   5480 SOBRA3-CE500  1.074  1.00 1.041 -172.9    0.0  288.2  5480  1.074 P I  1 10 DES    
   5551 SLUIS2-MA230  1.011  2.00 1.000 -115.4    0.0  169.9  5551  1.011 P L  1 10 DES    
   5551 SLUIS2-MA230  1.011  2.00 1.000 -102.1  -52.7  153.2  5551  1.011 P L  1 20 LIG    
   5611 TAUA2--CE230  0.998  2.22 1.000  -44.8   10.1   89.6  5611  0.998 I L  1 10 LIG    
   5679 PNBIII-PI500  1.064  2.00 1.060 -169.8  -19.6  339.6  5679  1.064 P L  1 90 LIG    
   5681 E.MART-PI230  1.025  3.00 1.020  -21.0  -15.7   31.5  5681  1.025 P L  1 10 LIG    
   5902 FUNIL--BA230  1.004  1.00 1.025 -115.0  207.5  226.9  5902  1.004 P L  1 10 LIG    
   6060 GENDO2-BA500  1.056  1.00 1.050 -111.6  -67.9  223.2  6060  1.056 I L  1 10 LIG    
   6131 EXTREM-RN230  1.020  1.00 1.020  -78.0    1.3  156.0  6131  1.020 I L  1 10 LIG    
   6132 CEAMIR-RN230  1.023  3.00 1.020  -78.4   -9.3  156.9  6132  1.023 I L  1 10 LIG    
   6290 M.CHAP-BA500  1.045  1.00 1.050 -109.3   48.2  218.6  6290  1.045 I L  1 10 LIG    
   6349 BJLAP2-BA500  1.047  0.80 1.050 -274.2   34.9  274.2  6349  1.047 P L  1 10 LIG    
   6368 SAPEAC-BA230  1.012  0.80 1.025 -153.6  164.2  256.0  6368  1.012 P L  1 10 LIG    
   6609 ITATIB-SP500  1.050  1.00 1.089 -330.9  330.9  330.9  6609  1.050 I C  1  1 LIG    
   6800 VILHEN-RO230  1.037  2.00 1.027  -53.8  -51.8  107.5  6800  1.037 I L  1 10 LIG    
   6950 R.BRAN-AC230  0.997  2.00 0.997  -19.9   -1.8   54.7  6950  0.997 P L  1 10 LIG    
   8265 JURUPACER500  1.041  1.00 1.006 -239.3 -239.3  239.9  8265  1.041 P I  1 10 LIG    
   8285 MACAPACER230  1.011  1.25 1.022 -113.5   87.1  180.5  8285  1.011 P L  1 10 LIG    
   8365 ORIXIMCER500  1.029  0.67 1.021 -234.2 -126.9  352.2  8365  1.029 P L  1 10 LIG    
   8465 SILVESCER500  1.023  0.67 1.019 -209.2  -57.9  313.8  8465  1.023 I L  1 10 LIG    
CEPEL - Centro de Pesquisas de Energia Eletrica - ANAREDE V11.07.02

 ONS - MENSAL - JANEIRO 2020 - Média                                             
 RELATORIO DE GERADOR * AREA   1 * FURNAS                              

 X------------X------X-----------------------X----X------X-------X
     BARRA     TENSAO         GERACAO         LIM. PARTIC  BARRA
  NUM.    TIPO   MOD     MIN     MW      MAX   MW    GER  CONTROL
      NOME       ANG     MIN    Mvar     MAX  Mvar  EQUIV   MVA
 X------------X------X-------X-------X-------X----X------X-------X

     19     -1  1.018     0.0     0.0 99999.0   I     0.0      19
  ITUMBISIN000   28.8     0.0     0.0     0.0   =     0.0     0.0
     24     -1  0.987     0.0   157.5   180.0         0.2      24
  M.MORBUHE004   15.9   -24.0    62.0    62.0   S     0.0   169.3
     30     -1  0.992     0.0     0.0 99999.0   I     0.0      30
  SCRU19UTE000  -29.2     0.0     0.0     0.0   =     0.0     0.0
     31     -1  0.949     0.0     0.0 99999.0   I     0.0      31
  SCRU13UTE000  -29.2     0.0     0.0     0.0   =     0.0     0.0
     32     -1  0.992     0.0     0.0 99999.0   I     0.0      32
  SCRU16UTE000  -29.2     0.0     0.0     0.0   =     0.0     0.0
     37     -1  0.999     0.0     0.0 99999.0   I     0.0      37
  S.MESASIN000   25.8     0.0     0.0     0.0   =     0.0     0.0
     50     -1  0.980     0.0     0.0 99999.0   I     0.0      50
  TPRETOSIN001  -16.6  -180.0   300.0   300.0   S     0.0   300.0
    201     -1  0.991     0.0     0.0 99999.0   I     0.0     201
  RSIL-1UTE001  -43.2     0.0     0.0     0.0   =     0.0     0.0
    203     -1  0.991     0.0     0.0 99999.0   I     0.0     203
  RSIL-2UTE001  -43.2     0.0     0.0     0.0   =     0.0     0.0




 RELATORIO DE GERADOR * AREA   2 * CEMIG GT                            

 X------------X------X-----------------------X----X------X-------X
     BARRA     TENSAO         GERACAO         LIM. PARTIC  BARRA
  NUM.    TIPO   MOD     MIN     MW      MAX   MW    GER  CONTROL
      NOME       ANG     MIN    Mvar     MAX  Mvar  EQUIV   MVA
 X------------X------X-------X-------X-------X----X------X-------X

   1500     -1  0.923     0.0     0.0 99999.0   I     0.0    1500
  IGARAPUTE000  -20.2     0.0     0.0     0.0   =     0.0     0.0
   9034     -1  1.019     0.0     0.0 99999.0   I     0.0    9034
  EMBORCSIN000   22.6     0.0     0.0     0.0   =     0.0     0.0
   9035     -1  0.996     0.0     0.0 99999.0   I     0.0    9035
  NPONTESIN000   20.0     0.0     0.0     0.0   =     0.0     0.0
   9037     -1  0.991     0.0     0.0 99999.0   I     0.0    9037
  VGRANDSIN000   18.7     0.0     0.0     0.0   =     0.0     0.0
   9041     -1  1.003     0.0     0.0 99999.0   I     0.0    9041
  IRAPE-SIN000   11.9     0.0     0.0     0.0   =     0.0     0.0




 RELATORIO DE GERADOR * AREA   3 * CEMIG D                             

 X------------X------X-----------------------X----X------X-------X
     BARRA     TENSAO         GERACAO         LIM. PARTIC  BARRA
  NUM.    TIPO   MOD     MIN     MW      MAX   MW    GER  CONTROL
      NOME       ANG     MIN    Mvar     MAX  Mvar  EQUIV   MVA
 X------------X------X-------X-------X-------X----X------X-------X

   1483     -1  1.028     0.0    31.5 99999.0         0.0    1483
  BEVAP-BIO138   13.2     0.0     0.0     0.0   =     0.0    31.5
   1585     -1  0.948     0.0     0.0 99999.0   I     0.0    1585
  IBIR-GUTE000  -20.1     0.0     0.0     0.0   =     0.0     0.0
   1586     -1  0.948     0.0     0.0 99999.0   I     0.0    1586
  IBIRITUTE000  -20.1     0.0     0.0     0.0   =     0.0     0.0
   4035     -1  0.993     0.0     0.0 99999.0   I     0.0    4035
  SJUDA-UTE000   -2.6     0.0     0.0     0.0   =     0.0     0.0
   4348     -1  0.984     0.0    71.9 99999.0         0.0    4348
  VAZAN-UFV138   14.0     0.0     0.0     0.0   =     0.0    71.9
   4371     -1  0.996     0.0     0.0 99999.0   I     0.0    4371
  WDPCT-BIO138    9.1     0.0     0.0     0.0   =     0.0     0.0
   9099     -1  1.000     0.0    15.5 99999.0         0.0    9099
  CACHOEPCH069  -25.8     0.0     0.0     0.0   =     0.0    15.5




 RELATORIO DE GERADOR * AREA   8 * C E S P                             

 X------------X------X-----------------------X----X------X-------X
     BARRA     TENSAO         GERACAO         LIM. PARTIC  BARRA
  NUM.    TIPO   MOD     MIN     MW      MAX   MW    GER  CONTROL
      NOME       ANG     MIN    Mvar     MAX  Mvar  EQUIV   MVA
 X------------X------X-------X-------X-------X----X------X-------X

    531     -1  1.016     0.0     0.0 99999.0   I     0.0     531
  I.SOLTSIN000   18.8     0.0     0.0     0.0   =     0.0     0.0




 RELATORIO DE GERADOR * AREA   9 * LIGHT SESA                          

 X------------X------X-----------------------X----X------X-------X
     BARRA     TENSAO         GERACAO         LIM. PARTIC  BARRA
  NUM.    TIPO   MOD     MIN     MW      MAX   MW    GER  CONTROL
      NOME       ANG     MIN    Mvar     MAX  Mvar  EQUIV   MVA
 X------------X------X-------X-------X-------X----X------X-------X

   3797     -1  1.023     0.0     6.1 99999.0         0.0    3797
  LAJES-PCH013  -27.3     0.0     0.0     0.0   =     0.0     6.1




 RELATORIO DE GERADOR * AREA  10 * ENEL DISTRIBUICAO RIO               

 X------------X------X-----------------------X----X------X-------X
     BARRA     TENSAO         GERACAO         LIM. PARTIC  BARRA
  NUM.    TIPO   MOD     MIN     MW      MAX   MW    GER  CONTROL
      NOME       ANG     MIN    Mvar     MAX  Mvar  EQUIV   MVA
 X------------X------X-------X-------X-------X----X------X-------X

   9038     -1  1.028     0.0     5.1 99999.0         0.0    9038
  SANTONPCH069  -37.7     0.0     0.0     0.0   =     0.0     5.1




 RELATORIO DE GERADOR * AREA  11 * EDP ES                              

 X------------X------X-----------------------X----X------X-------X
     BARRA     TENSAO         GERACAO         LIM. PARTIC  BARRA
  NUM.    TIPO   MOD     MIN     MW      MAX   MW    GER  CONTROL
      NOME       ANG     MIN    Mvar     MAX  Mvar  EQUIV   MVA
 X------------X------X-------X-------X-------X----X------X-------X

   2601     -1  0.973     0.0    21.0    31.6         0.0    2601
  SUICA-UHE001  -40.9   -15.2    15.2    15.2   S     0.0    25.9
   2901     -1  1.005     0.0     6.0 99999.0         0.0    2901
  SPED--PCH013  -40.4     0.0     0.0     0.0   =     0.0     6.0
   2903     -1  1.033     0.0     3.0 99999.0         0.0    2903
  SJOAO2PCH013  -42.4     0.0     0.0     0.0   =     0.0     3.0
   2905     -1  1.037     0.0     4.0 99999.0         0.0    2905
  SSIM1-PCH013  -39.4     0.0     0.0     0.0   =     0.0     4.0
   2917     -1  1.026     0.0    12.0 99999.0         0.0    2917
  PGARRAPCH013  -45.3     0.0     0.0     0.0   =     0.0    12.0
   2918     -1  1.036     0.0    18.7 99999.0         0.0    2918
  ST.FE-PCH013  -36.3     0.0     0.0     0.0   =     0.0    18.7




 RELATORIO DE GERADOR * AREA  12 * CELG D                              

 X------------X------X-----------------------X----X------X-------X
     BARRA     TENSAO         GERACAO         LIM. PARTIC  BARRA
  NUM.    TIPO   MOD     MIN     MW      MAX   MW    GER  CONTROL
      NOME       ANG     MIN    Mvar     MAX  Mvar  EQUIV   MVA
 X------------X------X-------X-------X-------X----X------X-------X

   2947     -1  0.927     0.0    35.5 99999.0         0.0    2947
  IACIA-PCH138   38.2     0.0     0.0     0.0   =     0.0    35.5
   2948     -1  0.926     0.0    59.6 99999.0         0.0    2948
  IACIA-PCH069   43.1     0.0     0.0     0.0   =     0.0    59.6




 RELATORIO DE GERADOR * AREA  13 * CEB                                 

 X------------X------X-----------------------X----X------X-------X
     BARRA     TENSAO         GERACAO         LIM. PARTIC  BARRA
  NUM.    TIPO   MOD     MIN     MW      MAX   MW    GER  CONTROL
      NOME       ANG     MIN    Mvar     MAX  Mvar  EQUIV   MVA
 X------------X------X-------X-------X-------X----X------X-------X

   3623     -1  1.006     0.0    17.0 99999.0         0.0    3623
  PARANOPCH013   18.1     0.5     0.5     0.5   =     0.0    17.0




 RELATORIO DE GERADOR * AREA  14 * AES TIETE                           

 X------------X------X-----------------------X----X------X-------X
     BARRA     TENSAO         GERACAO         LIM. PARTIC  BARRA
  NUM.    TIPO   MOD     MIN     MW      MAX   MW    GER  CONTROL
      NOME       ANG     MIN    Mvar     MAX  Mvar  EQUIV   MVA
 X------------X------X-------X-------X-------X----X------X-------X

    515     -1  0.979     0.0    91.2    91.2   S     0.0     515
  BARIRIUHE002   -4.8   -46.0    46.0    46.0   S     0.0   102.1
    516     -1  0.991     0.0   140.8   140.8   S     0.0     516
  BBONITUHE004   -6.1   -56.0    56.0    56.0   S     0.0   151.5
    522     -1  1.032     0.0    99.4   108.8         0.1     522
  ECUNHAUHE004   -4.6   -68.0    68.0    68.0   S     0.0   120.5
    523     -1  1.014     0.0    32.0    32.0   S     0.0     523
  LIMOEIUHE002   -5.1   -17.0    17.0    17.0   S     0.0    36.2
CEPEL - Centro de Pesquisas de Energia Eletrica - ANAREDE V11.07.02

 ONS - MENSAL - JANEIRO 2020 - Média                                             
 RELATORIO DE GERADOR * AREA  15 * CTG RIO PARANAPANEMA ENERGIA        

 X------------X------X-----------------------X----X------X-------X
     BARRA     TENSAO         GERACAO         LIM. PARTIC  BARRA
  NUM.    TIPO   MOD     MIN     MW      MAX   MW    GER  CONTROL
      NOME       ANG     MIN    Mvar     MAX  Mvar  EQUIV   MVA
 X------------X------X-------X-------X-------X----X------X-------X

    506     -1  0.980     0.0   101.0   101.0   S     0.0     506
  JURUMIUHE002   -1.9   -37.6    37.2    37.2   S     0.0   107.6




 RELATORIO DE GERADOR * AREA  19 * ENGIE                               

 X------------X------X-----------------------X----X------X-------X
     BARRA     TENSAO         GERACAO         LIM. PARTIC  BARRA
  NUM.    TIPO   MOD     MIN     MW      MAX   MW    GER  CONTROL
      NOME       ANG     MIN    Mvar     MAX  Mvar  EQUIV   MVA
 X------------X------X-------X-------X-------X----X------X-------X

    905     -1  1.029     0.0     0.0 99999.0   I     0.0     905
  ITA---SIN000   -3.6     0.0     0.0     0.0   =     0.0     0.0
    907     -1  0.934     0.0    35.0 99999.0         0.0     907
  JLA12AUTE001  -32.4   -12.0    16.0    16.0   S     0.0    38.5
    909     -1  0.956     0.0    67.0    67.0   S     0.0     909
  JLA34AUTE002  -32.3   -42.0    48.0    48.0   S     0.0    82.4
    911     -1  0.986     0.0   164.8   262.0         0.2     911
  JLA56BUTE002  -30.5   -31.0   137.0   137.0   S     0.0   214.3
    913     -1  0.987     0.0   185.5   363.0         0.2     913
  JLA7C-UTE001  -30.7   -62.0   165.0   165.0   S     0.0   248.2
    916     -1  1.022     0.0     0.0 99999.0   I     0.0     916
  MACHADSIN000   -6.0     0.0     0.0     0.0   =     0.0     0.0
    918     -1  1.000     0.0     0.0 99999.0   I     0.0     918
  PFUNDOSIN000   -1.7     0.0     0.0     0.0   =     0.0     0.0
    920     -1  1.012     0.0     0.0 99999.0   I     0.0     920
  SOSO14SIN000   11.6     0.0     0.0     0.0   =     0.0     0.0
    922     -1  1.012     0.0     0.0 99999.0   I     0.0     922
  SOSO56SIN000   11.6     0.0     0.0     0.0   =     0.0     0.0
    926     -1  1.012     0.0     0.0 99999.0   I     0.0     926
  SSANTISIN000    7.1     0.0     0.0     0.0   =     0.0     0.0




 RELATORIO DE GERADOR * AREA  21 * COPEL-GT                            

 X------------X------X-----------------------X----X------X-------X
     BARRA     TENSAO         GERACAO         LIM. PARTIC  BARRA
  NUM.    TIPO   MOD     MIN     MW      MAX   MW    GER  CONTROL
      NOME       ANG     MIN    Mvar     MAX  Mvar  EQUIV   MVA
 X------------X------X-------X-------X-------X----X------X-------X

    801     -1  1.001     0.0     0.0 99999.0   I     0.0     801
  GBMUNHSIN000    1.0     0.0     0.0     0.0   =     0.0     0.0
    805     -1  0.981     0.0     0.0 99999.0   I     0.0     805
  GPSOUZSIN000  -17.9     0.0     0.0     0.0   =     0.0     0.0
    809     -1  0.999     0.0     0.0 99999.0   I     0.0     809
  GJRICHSIN000   12.7     0.0     0.0     0.0   =     0.0     0.0
    811     -1  1.031     0.0     0.0 99999.0   I     0.0     811
  GNBRAGSIN000    6.0     0.0     0.0     0.0   =     0.0     0.0




 RELATORIO DE GERADOR * AREA  22 * COPEL-D                             

 X------------X------X-----------------------X----X------X-------X
     BARRA     TENSAO         GERACAO         LIM. PARTIC  BARRA
  NUM.    TIPO   MOD     MIN     MW      MAX   MW    GER  CONTROL
      NOME       ANG     MIN    Mvar     MAX  Mvar  EQUIV   MVA
 X------------X------X-------X-------X-------X----X------X-------X

   1053     -1  0.983     0.0     0.0 99999.0   I     0.0    1053
  TIBAGIUHE138   -9.1     0.0     0.0     0.0   =     0.0     0.0




 RELATORIO DE GERADOR * AREA  23 * CEEE-GT                             

 X------------X------X-----------------------X----X------X-------X
     BARRA     TENSAO         GERACAO         LIM. PARTIC  BARRA
  NUM.    TIPO   MOD     MIN     MW      MAX   MW    GER  CONTROL
      NOME       ANG     MIN    Mvar     MAX  Mvar  EQUIV   MVA
 X------------X------X-------X-------X-------X----X------X-------X

   1156     -1  0.999     0.0     0.0 99999.0   I     0.0    1156
  ITAUBASIN000  -11.1     0.0     0.0     0.0   =     0.0     0.0
   1177     -1  0.996     0.0     0.0 99999.0   I     0.0    1177
  DFRANCSIN000  -11.5     0.0     0.0     0.0   =     0.0     0.0
   2051     -1  0.981     0.0    13.2    13.2   S     0.0    2051
  CANASTPCH013  -28.9    -9.0    16.0    16.0   S     0.0    20.7




 RELATORIO DE GERADOR * AREA  27 * EMAE                                

 X------------X------X-----------------------X----X------X-------X
     BARRA     TENSAO         GERACAO         LIM. PARTIC  BARRA
  NUM.    TIPO   MOD     MIN     MW      MAX   MW    GER  CONTROL
      NOME       ANG     MIN    Mvar     MAX  Mvar  EQUIV   MVA
 X------------X------X-------X-------X-------X----X------X-------X

    403     -1  0.978     0.0     0.0 99999.0   I     0.0     403
  PIR88-UTE000    0.0     0.0     0.0     0.0   =     0.0     0.0
    404     -1  0.969     0.0     0.0 99999.0   I     0.0     404
  PIR230UTE000  -20.5     0.0     0.0     0.0   =     0.0     0.0
    405     -1  0.993     0.0     0.0 99999.0   I     0.0     405
  NPIRA1UTE000  -20.5     0.0     0.0     0.0   =     0.0     0.0
    406     -1  1.002     0.0     0.0 99999.0   I     0.0     406
  NPIRA2UTE000  -23.5     0.0     0.0     0.0   =     0.0     0.0
   7452     -1  0.972     0.0     0.0 99999.0   I     0.0    7452
  HBORDEUHE000  -26.6     0.0     0.0     0.0   =     0.0     0.0
   7453     -1  0.972     0.0     0.0 99999.0   I     0.0    7453
  HBORDEUHE000  -26.6     0.0     0.0     0.0   =     0.0     0.0
   7454     -1  0.977     0.0    15.5    62.0         0.0    7454
  HBORDEUHE001  -19.0   -33.0    18.0    18.0   S     0.0    23.7
   7458     -1  0.949     0.0     0.0 99999.0   I     0.0    7458
  HBORDSUHE000  -20.5     0.0     0.0     0.0   =     0.0     0.0
   7459     -1  0.949     0.0     0.0 99999.0   I     0.0    7459
  HBORDSUHE000  -20.5     0.0     0.0     0.0   =     0.0     0.0
   7461     -1  0.972     0.0     0.0 99999.0   I     0.0    7461
  HBORDESIN000  -26.6     0.0     0.0     0.0   =     0.0     0.0
   7462     -1  0.972     0.0     0.0 99999.0   I     0.0    7462
  HBORDESIN000  -26.6     0.0     0.0     0.0   =     0.0     0.0
   7463     -1  0.972     0.0     0.0 99999.0   I     0.0    7463
  HBORDESIN000  -26.6     0.0     0.0     0.0   =     0.0     0.0
   7464     -1  0.949     0.0     0.0 99999.0   I     0.0    7464
  HBORDESIN000  -20.5     0.0     0.0     0.0   =     0.0     0.0
   7468     -1  0.949     0.0     0.0 99999.0   I     0.0    7468
  HBORDSSIN000  -20.5     0.0     0.0     0.0   =     0.0     0.0
   7469     -1  0.949     0.0     0.0 99999.0   I     0.0    7469
  HBORDSSIN000  -20.5     0.0     0.0     0.0   =     0.0     0.0




 RELATORIO DE GERADOR * AREA  30 * ELEKTRO                             

 X------------X------X-----------------------X----X------X-------X
     BARRA     TENSAO         GERACAO         LIM. PARTIC  BARRA
  NUM.    TIPO   MOD     MIN     MW      MAX   MW    GER  CONTROL
      NOME       ANG     MIN    Mvar     MAX  Mvar  EQUIV   MVA
 X------------X------X-------X-------X-------X----X------X-------X

   4138     -1  0.993     0.0     0.0 99999.0   I     0.0    4138
  CASTI-BIO138    2.9     0.0     0.0     0.0   =     0.0     0.0
   4140     -1  0.987     0.0     0.0 99999.0   I     0.0    4140
  GUARI-BIO069    9.4     0.0     0.0     0.0   =     0.0     0.0
   7630     -1  1.001     0.0    67.5 99999.0         0.0    7630
  AVERM-UFV034   23.8     0.0     0.0     0.0   =     0.0    67.5
   9126     -1  0.981     0.0     0.0 99999.0   I     0.0    9126
  RVERM-BIO138    2.4     0.0     0.0     0.0   =     0.0     0.0




 RELATORIO DE GERADOR * AREA  34 * AES URUGUAIANA                      

 X------------X------X-----------------------X----X------X-------X
     BARRA     TENSAO         GERACAO         LIM. PARTIC  BARRA
  NUM.    TIPO   MOD     MIN     MW      MAX   MW    GER  CONTROL
      NOME       ANG     MIN    Mvar     MAX  Mvar  EQUIV   MVA
 X------------X------X-------X-------X-------X----X------X-------X

   1164     -1  0.979     0.0     0.0 99999.0   I     0.0    1164
  URUG-GUTE000  -20.6     0.0     0.0     0.0   =     0.0     0.0
   1165     -1  0.979     0.0     0.0 99999.0   I     0.0    1165
  URUG-VUTE000  -20.6     0.0     0.0     0.0   =     0.0     0.0




 RELATORIO DE GERADOR * AREA  37 * CPFL SANTA CRUZ                     

 X------------X------X-----------------------X----X------X-------X
     BARRA     TENSAO         GERACAO         LIM. PARTIC  BARRA
  NUM.    TIPO   MOD     MIN     MW      MAX   MW    GER  CONTROL
      NOME       ANG     MIN    Mvar     MAX  Mvar  EQUIV   MVA
 X------------X------X-------X-------X-------X----X------X-------X

   9115     -1  1.050     0.0     0.0 99999.0   I     0.0    9115
  IPAUS-BIO013  -10.0     0.0     0.0     0.0   =     0.0     0.0
CEPEL - Centro de Pesquisas de Energia Eletrica - ANAREDE V11.07.02

 ONS - MENSAL - JANEIRO 2020 - Média                                             
 RELATORIO DE GERADOR * AREA  38 * DEMAIS AGENTES SC                   

 X------------X------X-----------------------X----X------X-------X
     BARRA     TENSAO         GERACAO         LIM. PARTIC  BARRA
  NUM.    TIPO   MOD     MIN     MW      MAX   MW    GER  CONTROL
      NOME       ANG     MIN    Mvar     MAX  Mvar  EQUIV   MVA
 X------------X------X-------X-------X-------X----X------X-------X

   9747     -1  1.007     0.0     3.6 99999.0         0.0    9747
  OURO--PCH034   -8.1     0.0     0.0     0.0   =     0.0     3.6
   9749     -1  1.007     0.0     3.5 99999.0         0.0    9749
  MOINHOPCH034   -8.1     0.0     0.0     0.0   =     0.0     3.5




 RELATORIO DE GERADOR * AREA  39 * DEMAIS AGENTES RS                   

 X------------X------X-----------------------X----X------X-------X
     BARRA     TENSAO         GERACAO         LIM. PARTIC  BARRA
  NUM.    TIPO   MOD     MIN     MW      MAX   MW    GER  CONTROL
      NOME       ANG     MIN    Mvar     MAX  Mvar  EQUIV   MVA
 X------------X------X-------X-------X-------X----X------X-------X

   1073     -1  1.010     0.0     0.0 99999.0   I     0.0    1073
  FCHAPESIN000    8.1     0.0     0.0     0.0   =     0.0     0.0
   1152     -1  0.981     0.0     0.0 99999.0   I     0.0    1152
  CANO-GUTE000  -23.1     0.0     0.0     0.0   =     0.0     0.0
   1169     -1  0.981     0.0     0.0 99999.0   I     0.0    1169
  CANO-VUTE000  -23.1     0.0     0.0     0.0   =     0.0     0.0
   9867     -1  0.987     0.0     2.6     2.6   S     0.0    9867
  PONT2BEOL034  -21.6    -2.1     2.1     2.1   S     0.0     3.3




 RELATORIO DE GERADOR * AREA  40 * LIGHT ENERGIA                       

 X------------X------X-----------------------X----X------X-------X
     BARRA     TENSAO         GERACAO         LIM. PARTIC  BARRA
  NUM.    TIPO   MOD     MIN     MW      MAX   MW    GER  CONTROL
      NOME       ANG     MIN    Mvar     MAX  Mvar  EQUIV   MVA
 X------------X------X-------X-------X-------X----X------X-------X

    259     -1  1.069     0.0     0.0 99999.0   I     0.0     259
  SCECIL-RJ013  -32.8     0.0     0.0     0.0   =     0.0     0.0
    261     -1  1.078     0.0     0.0 99999.0   I     0.0     261
  VIGARI-RJ013  -32.1     0.0     0.0     0.0   =     0.0     0.0




 RELATORIO DE GERADOR * AREA  41 * DEMAIS AGENTES RJ/ES                

 X------------X------X-----------------------X----X------X-------X
     BARRA     TENSAO         GERACAO         LIM. PARTIC  BARRA
  NUM.    TIPO   MOD     MIN     MW      MAX   MW    GER  CONTROL
      NOME       ANG     MIN    Mvar     MAX  Mvar  EQUIV   MVA
 X------------X------X-------X-------X-------X----X------X-------X

   1711     -1  0.993     0.0     7.2 99999.0         0.0    1711
  CALHE-PCH013  -51.6     0.0     0.0     0.0   =     0.0     7.2
   1767     -1  1.003     0.0    20.2 99999.0         0.0    1767
  S.ROSAPCH013  -36.0     0.0     0.0     0.0   =     0.0    20.2
   3523     -1  1.030     0.0     0.0 99999.0   I     0.0    3523
  ELTB-VUTE000  -28.3     0.0     0.0     0.0   =     0.0     0.0
   3974     -1  1.030     0.0     0.0 99999.0   I     0.0    3974
  ELTB-GUTE000  -28.3     0.0     0.0     0.0   =     0.0     0.0
   3977     -1  1.031     0.0     0.0 99999.0   I     0.0    3977
  MERCHAUTE000  -34.1     0.0     0.0     0.0   =     0.0     0.0
   3978     -1  1.031     0.0     0.0 99999.0   I     0.0    3978
  MERCH-UTE000  -34.1     0.0     0.0     0.0   =     0.0     0.0
   3999     -1  1.072     0.0    18.4 99999.0         0.0    3999
  PARACAPCH013  -27.0     0.0     0.0     0.0   =     0.0    18.4
   4205     -1  1.005     0.0     0.0 99999.0   I     0.0    4205
  TRV28-UTE000  -28.1     0.0     0.0     0.0   =     0.0     0.0
   4206     -1  0.994     0.0     0.0 99999.0   I     0.0    4206
  TRG212UTE000  -30.4     0.0     0.0     0.0   =     0.0     0.0
   4207     -1  0.994     0.0     0.0 99999.0   I     0.0    4207
  TRG313UTE000  -30.4     0.0     0.0     0.0   =     0.0     0.0
   4208     -1  0.994     0.0     0.0 99999.0   I     0.0    4208
  TRV38-UTE000  -30.4     0.0     0.0     0.0   =     0.0     0.0
   8910     -1  0.998     0.0     0.0 99999.0   I     0.0    8910
  VIANA1UTE000  -38.9     0.0     0.0     0.0   =     0.0     0.0
   8911     -1  0.998     0.0     0.0 99999.0   I     0.0    8911
  VIANA2UTE000  -38.9     0.0     0.0     0.0   =     0.0     0.0
   9627     -1  0.986     0.0     0.0 99999.0   I     0.0    9627
  BFLUMGUTE000  -21.4     0.0     0.0     0.0   =     0.0     0.0
   9628     -1  0.986     0.0     0.0 99999.0   I     0.0    9628
  BFLUMVUTE000  -21.4     0.0     0.0     0.0   =     0.0     0.0




 RELATORIO DE GERADOR * AREA  44 * ELETRONUCLEAR                       

 X------------X------X-----------------------X----X------X-------X
     BARRA     TENSAO         GERACAO         LIM. PARTIC  BARRA
  NUM.    TIPO   MOD     MIN     MW      MAX   MW    GER  CONTROL
      NOME       ANG     MIN    Mvar     MAX  Mvar  EQUIV   MVA
 X------------X------X-------X-------X-------X----X------X-------X

     10     -1  0.972     0.0     0.0 99999.0   I     0.0      10
  ANGRA1UNE000  -17.7     0.0     0.0     0.0   =     0.0     0.0




 RELATORIO DE GERADOR * AREA  46 * ENERGISA (MATO GROSSO)              

 X------------X------X-----------------------X----X------X-------X
     BARRA     TENSAO         GERACAO         LIM. PARTIC  BARRA
  NUM.    TIPO   MOD     MIN     MW      MAX   MW    GER  CONTROL
      NOME       ANG     MIN    Mvar     MAX  Mvar  EQUIV   MVA
 X------------X------X-------X-------X-------X----X------X-------X

   3543     -1  1.002     0.0     1.0 99999.0         0.0    3543
  EGIDI-UTE034   63.3     0.0     0.0     0.0   =     0.0     1.0
   3544     -1  0.985     0.0     4.0 99999.0         0.0    3544
  AGUAQ-PCH034   65.2     0.0     0.0     0.0   =     0.0     4.0
   3547     -1  1.025     0.0    25.0 99999.0         0.0    3547
  JUI---PCH138   70.8     0.0     0.0     0.0   =     0.0    25.0
   3551     -1  1.058     0.0     3.6 99999.0         0.0    3551
  CARAM-PCH034   45.4     0.0     0.0     0.0   =     0.0     3.6
   4776     -1  0.980     0.0     0.0 99999.0   I     0.0    4776
  PRIMA-PCH013   18.9     0.0     0.0     0.0   =     0.0     0.0
   4851     -1  1.015     0.0     4.0 99999.0         0.0    4851
  JUINA--MT138   58.9     0.0     0.0     0.0   =     0.0     4.0




 RELATORIO DE GERADOR * AREA  47 * ENORTE (AC/RO)                      

 X------------X------X-----------------------X----X------X-------X
     BARRA     TENSAO         GERACAO         LIM. PARTIC  BARRA
  NUM.    TIPO   MOD     MIN     MW      MAX   MW    GER  CONTROL
      NOME       ANG     MIN    Mvar     MAX  Mvar  EQUIV   MVA
 X------------X------X-------X-------X-------X----X------X-------X

   6832     -1  1.002     0.0     0.0 99999.0   I     0.0    6832
  ROND2-UTE000   63.8     0.0     0.0     0.0   =     0.0     0.0
   6912     -1  0.967     0.0     0.0 99999.0   I     0.0    6900
  T.N2-GUTE000   76.7     0.0     0.0     0.0   =     0.0     0.0
   6913     -1  0.967     0.0     0.0 99999.0   I     0.0    6900
  T.N2-VUTE000   76.7     0.0     0.0     0.0   =     0.0     0.0




 RELATORIO DE GERADOR * AREA  48 * DEMAIS AGENTES AC/RO                

 X------------X------X-----------------------X----X------X-------X
     BARRA     TENSAO         GERACAO         LIM. PARTIC  BARRA
  NUM.    TIPO   MOD     MIN     MW      MAX   MW    GER  CONTROL
      NOME       ANG     MIN    Mvar     MAX  Mvar  EQUIV   MVA
 X------------X------X-------X-------X-------X----X------X-------X

   7001     -1  0.993     0.0     0.0 99999.0   I     0.0    7001
  RACRE2UTE000   56.0     0.0     0.0     0.0   =     0.0     0.0




 RELATORIO DE GERADOR * AREA  49 * DEMAIS AGENTES MT                   

 X------------X------X-----------------------X----X------X-------X
     BARRA     TENSAO         GERACAO         LIM. PARTIC  BARRA
  NUM.    TIPO   MOD     MIN     MW      MAX   MW    GER  CONTROL
      NOME       ANG     MIN    Mvar     MAX  Mvar  EQUIV   MVA
 X------------X------X-------X-------X-------X----X------X-------X

   3549     -1  1.029     0.0    20.0 99999.0         0.0    3549
  INPAS-UTE013   40.5     0.0     0.0     0.0   =     0.0    20.0
   4403     -1  1.043     0.0     7.3 99999.0         0.0    4403
  APRAT-PCH034   44.0     0.0     0.0     0.0   =     0.0     7.3
   4404     -1  1.037     0.0     7.8 99999.0         0.0    4404
  ABRAV-PCH034   43.3     0.0     0.0     0.0   =     0.0     7.8
   4405     -1  1.037     0.0     0.0 99999.0   I     0.0    4405
  ACLAR-PCH034   43.3     0.0     0.0     0.0   =     0.0     0.0
   4416     -1  1.002     0.0    19.7 99999.0         0.0    4416
  PAMPEAPCH069   54.9     0.0     0.0     0.0   =     0.0    19.7
   4424     -1  1.003     0.0    18.7 99999.0         0.0    4424
  TERSANPCH013   55.1     0.0     0.0     0.0   =     0.0    18.7
   4430     -1  0.999     0.0    13.3 99999.0         0.0    4430
  CIDEZAPCH013   63.0     0.0     0.0     0.0   =     0.0    13.3
   4434     -1  0.998     0.0     0.0 99999.0   I     0.0    4434
  SAPEZAPCH013   60.4     0.0     0.0     0.0   =     0.0     0.0
   4436     -1  0.998     0.0     8.1 99999.0         0.0    4436
  DIVISAPCH013   63.5     0.0     0.0     0.0   =     0.0     8.1
   4438     -1  0.996     0.0    19.1 99999.0         0.0    4438
  SEGREDPCH013   62.8     0.0     0.0     0.0   =     0.0    19.1
   4440     -1  0.996     0.0    13.8 99999.0         0.0    4440
  ILHCOMPCH013   62.4     0.0     0.0     0.0   =     0.0    13.8
   4442     -1  0.995     0.0    12.3 99999.0         0.0    4442
  PAREC-PCH013   61.9     0.0     0.0     0.0   =     0.0    12.3
   4444     -1  1.000     0.0    10.2 99999.0         0.0    4444
  ROMDOMPCH013   63.4     0.0     0.0     0.0   =     0.0    10.2
CEPEL - Centro de Pesquisas de Energia Eletrica - ANAREDE V11.07.02

 ONS - MENSAL - JANEIRO 2020 - Média                                             
 RELATORIO DE GERADOR * AREA  49 * DEMAIS AGENTES MT                   

 X------------X------X-----------------------X----X------X-------X
     BARRA     TENSAO         GERACAO         LIM. PARTIC  BARRA
  NUM.    TIPO   MOD     MIN     MW      MAX   MW    GER  CONTROL
      NOME       ANG     MIN    Mvar     MAX  Mvar  EQUIV   MVA
 X------------X------X-------X-------X-------X----X------X-------X

   4446     -1  1.001     0.0    27.7 99999.0         0.0    4446
  TELEG-PCH013   64.6     0.0     0.0     0.0   =     0.0    27.7
   4460     -1  1.014     0.0    17.7 99999.0         0.0    4460
  BOCAIUPCH013   59.5     0.0     0.0     0.0   =     0.0    17.7
   4596     -1  1.007     0.0     0.0 99999.0   I     0.0    4596
  CBA-G-UTE000   34.9     0.0     0.0     0.0   =     0.0     0.0
   4597     -1  1.007     0.0     0.0 99999.0   I     0.0    4597
  CBA-V-UTE000   34.9     0.0     0.0     0.0   =     0.0     0.0
   4600     -1  1.032     0.0    12.7 99999.0         0.0    4600
  JOSEG-PCH138   35.8     0.0     0.0     0.0   =     0.0    12.7
   4603     -1  1.032     0.0    16.2 99999.0         0.0    4603
  ROMDO-PCH138   35.8     0.0     0.0     0.0   =     0.0    16.2
   4604     -1  1.026     0.0     4.4 99999.0         0.0    4604
  JONASPPCH013   48.9     0.0     0.0     0.0   =     0.0     4.4
   4605     -1  1.043     0.0    22.4 99999.0         0.0    4605
  SLOUREPCH013   44.8     0.0     0.0     0.0   =     0.0    22.4
   4609     -1  1.046     0.0    13.1 99999.0         0.0    4609
  7QUED-PCH013   44.1     0.0     0.0     0.0   =     0.0    13.1
   4616     -1  0.956     0.0     8.1 99999.0         0.0    4616
  LAJARIPCH138   27.8     0.0     0.0     0.0   =     0.0     8.1
   4617     -1  0.899     0.0     0.0 99999.0   I     0.0    4617
  AGREN-BIO013    0.0     0.0     0.0     0.0   =     0.0     0.0
   4631     -1  1.068     0.0    22.9 99999.0         0.0    4631
  SGABR-PCH013   43.6     0.0     0.0     0.0   =     0.0    22.9
   4638     -1  1.026     0.0    14.0 99999.0         0.0    4638
  STADE-PCH013   41.0     0.0     0.0     0.0   =     0.0    14.0
   4649     -1  0.985     0.0     3.8 99999.0         0.0    4649
  SUCUP-PCH013   49.3     0.0     0.0     0.0   =     0.0     3.8
   4650     -1  0.987     0.0     5.5 99999.0         0.0    4650
  PEQUI-PCH013   49.8     0.0     0.0     0.0   =     0.0     5.5
   4651     -1  1.002     0.0    10.8 99999.0         0.0    4651
  GUACU-BIO034   72.9     0.0     0.0     0.0   =     0.0    10.8
   4654     -1  0.996     0.0     6.8     6.8   S     0.0    4654
  MARAC-PCH034   46.6    -3.3     4.8     4.8   S     0.0     8.3
   4688     -1  1.027     0.0     0.7 99999.0         0.0    4688
  GLORI-PCH013   48.2     0.0     0.0     0.0   =     0.0     0.7
   4691     -1  1.020     0.0     1.0 99999.0         0.0    4691
  MESTREPCH013   46.3     0.0     0.0     0.0   =     0.0     1.0
   4692     -1  1.019     0.0     1.9 99999.0         0.0    4692
  S.CECIPCH013   46.8     0.0     0.0     0.0   =     0.0     1.9
   4697     -1  0.986     0.0     2.3 99999.0         0.0    4697
  CAMBA-PCH013   48.6     0.0     0.0     0.0   =     0.0     2.3
   4698     -1  0.985     0.0     3.0 99999.0         0.0    4698
  EMBAU-PCH013   49.2     0.0     0.0     0.0   =     0.0     3.0
   4757     -2  0.963     0.0     7.7     6.5   S     0.0    4757
  CASC3-PCH013   27.5     0.0     0.0     0.0   =     0.0     7.7
   4758     -1  0.984     0.0     4.4 99999.0         0.0    4758
  CASC2-PCH013   22.9     0.0     0.0     0.0   =     0.0     4.4
   4800     -1  1.022     0.0    12.1 99999.0         0.0    4800
  FIGUE-PCH138   50.0     0.0     0.0     0.0   =     0.0    12.1
   4811     -1  1.021     0.0    21.4    21.4   S     0.0    4811
  OMBRE-PCH138   51.5    -6.4    -6.4     9.5   I     0.0    22.3
   4825     -1  1.027     0.0     3.9     3.9   S     0.0    4825
  FSAGR-BIO013   35.7    -7.6    11.1    11.1   S     0.0    11.8
   4834     -1  1.014     0.0    29.4 99999.0         0.0    4834
  SACR2-PCH013   59.7     0.0     0.0     0.0   =     0.0    29.4
   4867     -1  1.021     0.0    19.5    19.5   S     0.0    4867
  ABRE--PCH138   51.9    -6.4    -6.4     9.4   I     0.0    20.5
   4877     -1  0.994     0.0    18.2 99999.0         0.0    4877
  SCOR--PCH138   51.3     0.0     0.0     0.0   =     0.0    18.2
   4881     -1  0.983     0.0    11.0 99999.0         0.0    4881
  SLUCI-PCH013   64.6     0.0     0.0     0.0   =     0.0    11.0
   4917     -1  0.987     0.0    28.2 99999.0         0.0    4917
  CANOAQPCH069   48.9     0.0     0.0     0.0   =     0.0    28.2
   4969     -1  1.027     0.0    13.0    13.0   S     0.0    4969
  BNOR3-PCH013   56.2    -4.2     6.2     6.2   S     0.0    14.4
   4996     -1  1.031     0.0     8.9 99999.0         0.0    4996
  BURITIPCH013   66.5     0.0     0.0     0.0   =     0.0     8.9
   4998     -1  0.996     0.0    13.8    13.8   S     0.0    4998
  BNOR4-PCH013   53.3    -4.5     6.7     6.7   S     0.0    15.3




 RELATORIO DE GERADOR * AREA  51 * COMPLEXO PAF + UAS  + ULG + UX      

 X------------X------X-----------------------X----X------X-------X
     BARRA     TENSAO         GERACAO         LIM. PARTIC  BARRA
  NUM.    TIPO   MOD     MIN     MW      MAX   MW    GER  CONTROL
      NOME       ANG     MIN    Mvar     MAX  Mvar  EQUIV   MVA
 X------------X------X-------X-------X-------X----X------X-------X

   5006     -1  1.030     0.0     0.0 99999.0   I     0.0    5006
  PAFO1GUHE000    3.8     0.0     0.0     0.0   =     0.0     0.0
   5009     -1  1.029     0.0     0.0 99999.0   I     0.0    5009
  PAF2G1UHE000    3.8     0.0     0.0     0.0   =     0.0     0.0
   5010     -1  1.027     0.0     0.0 99999.0   I     0.0    5010
  PAF2G2UHE000    3.5     0.0     0.0     0.0   =     0.0     0.0
   5011     -1  1.029     0.0     0.0 99999.0   I     0.0    5011
  PAF2G3UHE000    3.8     0.0     0.0     0.0   =     0.0     0.0
   5012     -1  1.029     0.0     0.0 99999.0   I     0.0    5012
  PAF2G4UHE000    3.8     0.0     0.0     0.0   =     0.0     0.0
   5013     -1  1.029     0.0     0.0 99999.0   I     0.0    5013
  PAF2G5UHE000    3.8     0.0     0.0     0.0   =     0.0     0.0
   5014     -1  1.029     0.0     0.0 99999.0   I     0.0    5014
  PAF2G6UHE000    3.8     0.0     0.0     0.0   =     0.0     0.0
   5015     -1  0.982     0.0     0.0 99999.0   I     0.0    5015
  PAF3G1UHE000    3.8     0.0     0.0     0.0   =     0.0     0.0
   5016     -1  0.983     0.0     0.0 99999.0   I     0.0    5016
  PAF3G2UHE000    3.8     0.0     0.0     0.0   =     0.0     0.0
   5030     -1  0.982     0.0     0.0 99999.0   I     0.0    5030
  ASALG1UHE000    3.8     0.0     0.0     0.0   =     0.0     0.0
   5032     -1  0.983     0.0     0.0 99999.0   I     0.0    5032
  ASALG3UHE000    3.8     0.0     0.0     0.0   =     0.0     0.0




 RELATORIO DE GERADOR * AREA  53 * SUDOESTE DA BAHIA                   

 X------------X------X-----------------------X----X------X-------X
     BARRA     TENSAO         GERACAO         LIM. PARTIC  BARRA
  NUM.    TIPO   MOD     MIN     MW      MAX   MW    GER  CONTROL
      NOME       ANG     MIN    Mvar     MAX  Mvar  EQUIV   MVA
 X------------X------X-------X-------X-------X----X------X-------X

   6222     -1  0.984     0.0     0.0 99999.0   I     0.0    6222
  IGT012EOL000   40.7     0.0     0.0     0.0   =     0.0     0.0
   6223     -1  1.002     0.0     0.0 99999.0   I     0.0    6223
  PND012EOL000   15.6     0.0     0.0     0.0   =     0.0     0.0
   6276     -1  0.994     0.0     0.0 99999.0   I     0.0    6276
  REPIF1EOL012   46.9     0.0     0.0     0.0   =     0.0     0.0
   6277     -1  0.992     0.0     0.0 99999.0   I     0.0    6277
  REPIF2EOL002   45.7     0.0     0.0     0.0   =     0.0     0.0
   6278     -1  0.991     0.0     0.0 99999.0   I     0.0    6278
  REPIA1EOL003   47.0     0.0     0.0     0.0   =     0.0     0.0
   6279     -1  0.997     0.0     0.0 99999.0   I     0.0    6279
  REPIA2EOL021   48.4     0.0     0.0     0.0   =     0.0     0.0
   6294     -1  1.048     0.0   250.3   292.0         0.3    6300
  SOBRADUHE002   21.7   -68.0    97.0    97.0   S     0.0   268.4
   6314     -1  1.014     0.0     0.0 99999.0   I     0.0    6314
  PET---UTE000   11.7     0.0     0.0     0.0   =     0.0     0.0
   6503     -1  1.000     0.0     0.0 99999.0   I     0.0    6503
  JUAZE3-BA069   13.3     0.0     0.0     0.0   =     0.0     0.0
   6625     -1  0.985     0.0     0.0 99999.0   I     0.0    6625
  ACACIAEOL000   40.3     0.0     0.0     0.0   =     0.0     0.0




 RELATORIO DE GERADOR * AREA  54 * AREA SUL                            

 X------------X------X-----------------------X----X------X-------X
     BARRA     TENSAO         GERACAO         LIM. PARTIC  BARRA
  NUM.    TIPO   MOD     MIN     MW      MAX   MW    GER  CONTROL
      NOME       ANG     MIN    Mvar     MAX  Mvar  EQUIV   MVA
 X------------X------X-------X-------X-------X----X------X-------X

...